Battery Evaluator (Altium)
*SPICE Netlist generated by Advanced Sim server on 5/10/2021 1:23:28 PM
.options MixedSimGenerated

*Schematic Netlist:

.SAVE allV
.SAVE allI
.SAVE allP


*Selected Circuit Analyses:
.TRAN  20.00n  5.000u 0  20.00n
.OP

.END
